/*--------------------------------*- C++ -*----------------------------------*\
| =========                 |                                                 |
| \\      /  F ield         | OpenFOAM: The Open Source CFD Toolbox           |
|  \\    /   O peration     | Version:  v2012                                 |
|   \\  /    A nd           | Website:  www.openfoam.com                      |
|    \\/     M anipulation  |                                                 |
\*---------------------------------------------------------------------------*/
FoamFile
{
    version     2.0;
    format      ascii;
    class       volScalarField;
    object      c_AgNO3;
}
// * * * * * * * * * * * * * * * * * * * * * * * * * * * * * * * * * * * * * //

dimensions      [1 -3 0 0 0 0 0];

internalField   uniform 0;

boundaryField
{
    inlet1
    {
        type            fixedValue;
        value           uniform 0.1562804;
    }

    inlet2
    {
        type            fixedValue;
        value           uniform 0.0;
    }

    walls
    {
        type            zeroGradient;
    }

    outlet
    {
        type            zeroGradient;
    }

    frontBack
    {
        type            empty;
    }
}

// ************************************************************************* //
