/*--------------------------------*- C++ -*----------------------------------*\
  =========                 |
  \\      /  F ield         | OpenFOAM: The Open Source CFD Toolbox
   \\    /   O peration     | Website:  https://openfoam.org
    \\  /    A nd           | Version:  dev
     \\/     M anipulation  |
\*---------------------------------------------------------------------------*/
FoamFile
{
    version     2.0;
    format      ascii;
    class       volScalarField;
    location    "0";
    object      moment.1.populationBalance;
}
// * * * * * * * * * * * * * * * * * * * * * * * * * * * * * * * * * * * * * //

dimensions      [0 -2 0 0 0 0 0];

internalField   uniform 0.0;//1.27e8;

boundaryField
{
    inlet1
    {
        type            inletOutlet;
        inletValue      $internalField;
    }

    inlet2
    {
        type            inletOutlet;
        inletValue      $internalField;
    }

    walls
    {
        type            zeroGradient;
    }

    outlet
    {
        type            zeroGradient;
    }

    frontBack
    {
        type            empty;
    }
}


// ************************************************************************* //
